3
 nfi=0 etot=          0.20921778
Ar            6.67103294         -10.61468714          12.63369399
Ar            1.06574059          -3.33432278          -2.59038678
Ar           -1.78412296         -16.52594584           4.61680015
3
 nfi=5 etot=          0.20921778
Ar            6.63974649         -10.60498764          12.62502349
Ar            1.07407593          -3.33386561          -2.60278379
Ar           -1.79924523         -16.51780381           4.60749611
3
 nfi=10 etot=          0.20921778
Ar            6.60063843         -10.59286326          12.61418537
Ar            1.08449511          -3.33329415          -2.61828005
Ar           -1.81814807         -16.50762628           4.59586606
3
 nfi=15 etot=          0.20921778
Ar            6.56153037         -10.58073889          12.60334725
Ar            1.09491428          -3.33272269          -2.63377631
Ar           -1.83705090         -16.49744874           4.58423601
3
 nfi=20 etot=          0.20921778
Ar            6.52242231         -10.56861451          12.59250913
Ar            1.10533346          -3.33215122          -2.64927257
Ar           -1.85595374         -16.48727121           4.57260596
3
 nfi=25 etot=          0.20921778
Ar            6.48331425         -10.55649013          12.58167101
Ar            1.11575264          -3.33157976          -2.66476883
Ar           -1.87485658         -16.47709367           4.56097591
3
 nfi=30 etot=          0.20921778
Ar            6.44420619         -10.54436576          12.57083289
Ar            1.12617182          -3.33100830          -2.68026509
Ar           -1.89375941         -16.46691614           4.54934586
3
 nfi=35 etot=          0.20921778
Ar            6.40509812         -10.53224138          12.55999477
Ar            1.13659099          -3.33043683          -2.69576135
Ar           -1.91266225         -16.45673861           4.53771581
3
 nfi=40 etot=          0.20921778
Ar            6.36599006         -10.52011700          12.54915665
Ar            1.14701017          -3.32986537          -2.71125761
Ar           -1.93156509         -16.44656107           4.52608576
3
 nfi=45 etot=          0.20921778
Ar            6.32688200         -10.50799262          12.53831853
Ar            1.15742935          -3.32929391          -2.72675387
Ar           -1.95046793         -16.43638354           4.51445571
3
 nfi=50 etot=          0.20921778
Ar            6.28777394         -10.49586825          12.52748041
Ar            1.16784853          -3.32872244          -2.74225013
Ar           -1.96937076         -16.42620600           4.50282566
3
 nfi=55 etot=          0.20921778
Ar            6.24866588         -10.48374387          12.51664229
Ar            1.17826770          -3.32815098          -2.75774639
Ar           -1.98827360         -16.41602847           4.49119561
3
 nfi=60 etot=          0.20921778
Ar            6.20955782         -10.47161949          12.50580417
Ar            1.18868688          -3.32757952          -2.77324265
Ar           -2.00717644         -16.40585093           4.47956556
3
 nfi=65 etot=          0.20921778
Ar            6.17044976         -10.45949512          12.49496605
Ar            1.19910606          -3.32700805          -2.78873891
Ar           -2.02607928         -16.39567340           4.46793551
3
 nfi=70 etot=          0.20921778
Ar            6.13134169         -10.44737074          12.48412793
Ar            1.20952524          -3.32643659          -2.80423517
Ar           -2.04498211         -16.38549586           4.45630546
3
 nfi=75 etot=          0.20921778
Ar            6.09223363         -10.43524636          12.47328981
Ar            1.21994441          -3.32586513          -2.81973143
Ar           -2.06388495         -16.37531833           4.44467541
3
 nfi=80 etot=          0.20921778
Ar            6.05312557         -10.42312198          12.46245168
Ar            1.23036359          -3.32529367          -2.83522769
Ar           -2.08278779         -16.36514079           4.43304536
3
 nfi=85 etot=          0.20921778
Ar            6.01401751         -10.41099761          12.45161356
Ar            1.24078277          -3.32472220          -2.85072395
Ar           -2.10169063         -16.35496326           4.42141531
3
 nfi=90 etot=          0.20921778
Ar            5.97490945         -10.39887323          12.44077544
Ar            1.25120195          -3.32415074          -2.86622021
Ar           -2.12059346         -16.34478573           4.40978526
3
 nfi=95 etot=          0.20921778
Ar            5.93580139         -10.38674885          12.42993732
Ar            1.26162112          -3.32357928          -2.88171647
Ar           -2.13949630         -16.33460819           4.39815521
3
 nfi=100 etot=          0.20921778
Ar            5.89669332         -10.37462448          12.41909920
Ar            1.27204030          -3.32300781          -2.89721273
Ar           -2.15839914         -16.32443066           4.38652516
